Version 4
SHEET 1 1780 1316
WIRE -192 -128 -384 -128
WIRE -128 -128 -192 -128
WIRE -80 -128 -128 -128
WIRE 112 -128 0 -128
WIRE 240 -128 112 -128
WIRE 976 -128 240 -128
WIRE 512 -48 416 -48
WIRE 544 -48 512 -48
WIRE 608 -48 544 -48
WIRE 608 -32 608 -48
WIRE 800 -32 688 -32
WIRE -384 0 -384 -128
WIRE 800 0 800 -32
WIRE 512 48 512 -48
WIRE 416 80 416 -48
WIRE -192 96 -192 -128
WIRE 512 128 464 128
WIRE 688 128 688 -32
WIRE 368 144 208 144
WIRE -384 176 -384 80
WIRE -336 176 -384 176
WIRE -304 176 -336 176
WIRE -192 208 -192 176
WIRE 16 208 -192 208
WIRE 96 208 80 208
WIRE 128 208 128 144
WIRE 128 208 96 208
WIRE 688 224 688 208
WIRE 800 224 800 80
WIRE 800 224 688 224
WIRE -384 240 -384 176
WIRE 128 240 128 208
WIRE 800 240 800 224
WIRE -192 256 -192 208
WIRE 384 272 384 192
WIRE -576 288 -768 288
WIRE -544 288 -576 288
WIRE -528 288 -544 288
WIRE -432 288 -448 288
WIRE -768 304 -768 288
WIRE -304 304 -304 176
WIRE -240 304 -304 304
WIRE 608 304 608 48
WIRE 752 304 608 304
WIRE 976 304 976 -128
WIRE 976 304 832 304
WIRE -544 336 -544 288
WIRE -416 368 -416 336
WIRE -288 368 -416 368
WIRE 128 368 128 320
WIRE 384 368 384 352
WIRE -416 384 -416 368
WIRE -288 384 -288 368
WIRE -224 400 -224 352
WIRE -64 400 -224 400
WIRE -224 432 -224 400
WIRE 384 432 384 416
WIRE 128 464 128 416
WIRE -416 480 -416 464
WIRE -288 480 -288 448
WIRE -288 480 -416 480
WIRE -768 496 -768 384
WIRE -544 496 -544 416
WIRE -416 528 -416 480
WIRE 608 544 608 304
WIRE 560 560 528 560
WIRE -64 576 -64 400
WIRE 16 576 -64 576
WIRE 128 576 128 544
WIRE 128 576 80 576
WIRE 528 576 528 560
WIRE 384 592 384 512
WIRE 128 640 128 576
WIRE 368 640 208 640
WIRE -224 656 -224 512
WIRE 528 656 464 656
WIRE 416 768 416 704
WIRE 560 768 560 560
WIRE 560 768 416 768
WIRE 608 768 608 624
WIRE 608 768 560 768
WIRE -560 816 -720 816
WIRE -496 816 -560 816
WIRE -352 816 -432 816
WIRE -176 816 -352 816
WIRE -144 816 -176 816
WIRE -16 816 -64 816
WIRE 112 816 64 816
WIRE 208 816 112 816
WIRE 336 816 288 816
WIRE 512 816 336 816
WIRE 672 816 512 816
WIRE 896 816 768 816
WIRE 992 816 896 816
WIRE 1056 816 992 816
WIRE 1088 816 1056 816
WIRE -560 848 -560 816
WIRE -352 848 -352 816
WIRE 512 848 512 816
WIRE -176 864 -176 816
WIRE 336 864 336 816
WIRE -720 880 -720 816
WIRE 752 928 752 864
WIRE 752 928 512 928
WIRE -560 944 -560 912
WIRE -496 944 -560 944
WIRE -352 944 -352 912
WIRE -352 944 -432 944
WIRE -560 976 -560 944
WIRE -272 976 -560 976
WIRE -176 976 -176 928
WIRE -176 976 -272 976
WIRE 896 992 896 976
WIRE 896 992 816 992
WIRE -720 1008 -720 960
WIRE -352 1008 -352 944
WIRE -352 1008 -720 1008
WIRE -272 1024 -272 976
WIRE -176 1024 -176 976
WIRE 112 1024 112 880
WIRE 112 1024 -176 1024
WIRE 336 1024 336 928
WIRE 336 1024 112 1024
WIRE 752 1024 752 928
WIRE 816 1072 816 992
WIRE 896 1088 896 1072
WIRE 992 1104 992 816
WIRE 752 1184 752 1120
WIRE 992 1184 752 1184
WIRE 752 1200 752 1184
WIRE 896 1248 896 1168
WIRE 752 1296 752 1264
FLAG 384 368 0
FLAG 128 368 0
FLAG -544 496 0
FLAG 384 416 0
FLAG 128 416 0
FLAG -224 656 0
FLAG -768 496 0
FLAG 240 -64 0
FLAG 544 -48 a
FLAG 96 208 b
FLAG -576 288 ulaz
FLAG 800 240 0
FLAG -416 528 0
FLAG -336 176 prvi_stepen
FLAG -128 -64 0
FLAG -272 1024 0
FLAG 752 1296 0
FLAG 896 1248 0
FLAG 112 -128 Ebb
FLAG 1056 816 Ebb
SYMBOL voltage -768 288 R0
WINDOW 3 24 44 Left 2
WINDOW 123 24 72 Left 2
WINDOW 39 24 100 Left 2
SYMATTR Value SINE(0 {napon} {X})
SYMATTR Value2 AC 1
SYMATTR SpiceLine Rser=400
SYMATTR InstName V1
SYMBOL ind2 704 224 R180
WINDOW 0 -35 85 Left 2
WINDOW 3 36 40 Left 2
SYMATTR InstName L3
SYMATTR Value 1.3
SYMATTR SpiceLine Rser=8
SYMBOL res 784 -16 R0
SYMATTR InstName R4
SYMATTR Value 8
SYMBOL Misc\\tetrode 416 128 R0
SYMATTR InstName U3
SYMATTR Value EL504
SYMBOL res 112 224 R0
SYMATTR InstName R3
SYMATTR Value 100k
SYMATTR SpiceLine tol=1
SYMBOL Misc\\triode -384 288 R0
SYMATTR InstName U1
SYMATTR Value 12au7
SYMBOL res -400 -16 R0
SYMATTR InstName R6
SYMATTR Value 180k
SYMBOL res -432 368 R0
SYMATTR InstName R8
SYMATTR Value 1.5k
SYMBOL cap 80 192 R90
WINDOW 0 0 32 VBottom 2
WINDOW 3 32 32 VTop 2
SYMATTR InstName C3
SYMATTR Value 1µ
SYMBOL res 224 128 R90
WINDOW 0 0 56 VBottom 2
WINDOW 3 32 56 VTop 2
SYMATTR InstName R9
SYMATTR Value 2.7k
SYMATTR SpiceLine tol=1
SYMBOL res -432 272 R90
WINDOW 0 0 56 VBottom 2
WINDOW 3 32 56 VTop 2
SYMATTR InstName R10
SYMATTR Value 2.2k
SYMBOL res -528 432 R180
WINDOW 0 36 76 Left 2
WINDOW 3 36 40 Left 2
SYMATTR InstName R11
SYMATTR Value 470k
SYMBOL ind2 624 64 R180
WINDOW 0 -36 80 Left 2
WINDOW 3 -37 38 Left 2
SYMATTR InstName L2
SYMATTR Value 250
SYMATTR Type ind
SYMATTR SpiceLine Rser=1k
SYMBOL ind2 624 640 R180
WINDOW 0 -32 82 Left 2
WINDOW 3 -43 38 Left 2
SYMATTR InstName L5
SYMATTR Value 250
SYMATTR SpiceLine Rser=1k
SYMBOL res 496 32 R0
SYMATTR InstName R5
SYMATTR Value 2.2k
SYMATTR SpiceLine tol=1
SYMBOL Misc\\tetrode 416 656 M180
SYMATTR InstName U2
SYMATTR Value EL504
SYMBOL res 512 560 R0
SYMATTR InstName R12
SYMATTR Value 2.2k
SYMATTR SpiceLine tol=1
SYMBOL res 112 560 M180
WINDOW 0 36 76 Left 2
WINDOW 3 36 40 Left 2
SYMATTR InstName R13
SYMATTR Value 100k
SYMATTR SpiceLine tol=1
SYMBOL cap 80 592 M270
WINDOW 0 32 32 VTop 2
WINDOW 3 0 32 VBottom 2
SYMATTR InstName C5
SYMATTR Value 1µ
SYMBOL res 224 656 M270
WINDOW 0 32 56 VTop 2
WINDOW 3 0 56 VBottom 2
SYMATTR InstName R14
SYMATTR Value 2.7k
SYMATTR SpiceLine tol=1
SYMBOL Misc\\triode -192 304 R0
SYMATTR InstName U4
SYMATTR Value 12au7
SYMBOL res -208 80 R0
SYMATTR InstName R16
SYMATTR Value 18k
SYMATTR SpiceLine tol=1
SYMBOL res -240 416 R0
SYMATTR InstName R17
SYMATTR Value 18k
SYMATTR SpiceLine tol=1
SYMBOL cap 224 -128 R0
SYMATTR InstName C7
SYMATTR Value 220µ
SYMBOL res 848 288 R90
WINDOW 0 0 56 VBottom 2
WINDOW 3 32 56 VTop 2
SYMATTR InstName R18
SYMATTR Value 0.001
SYMBOL res 368 256 R0
SYMATTR InstName R1
SYMATTR Value {OHM}
SYMATTR SpiceLine tol=1
SYMBOL res 368 416 R0
SYMATTR InstName R2
SYMATTR Value {OHM}
SYMATTR SpiceLine tol=1
SYMBOL cap -304 384 R0
SYMATTR InstName C1
SYMATTR Value 300µ
SYMBOL res 16 -144 R90
WINDOW 0 0 56 VBottom 2
WINDOW 3 32 56 VTop 2
SYMATTR InstName R7
SYMATTR Value 2.5k
SYMBOL cap -144 -128 R0
SYMATTR InstName C2
SYMATTR Value 220µ
SYMBOL voltage -720 864 R0
WINDOW 123 24 124 Left 2
WINDOW 39 24 152 Left 2
SYMATTR Value2 AC 0
SYMATTR SpiceLine Rser=2
SYMATTR InstName V3
SYMATTR Value SINE(0 296 50)
SYMBOL diode -496 832 R270
WINDOW 0 32 32 VTop 2
WINDOW 3 0 32 VBottom 2
SYMATTR InstName D1
SYMATTR Value RRE07VS4S
SYMBOL diode -544 912 R180
WINDOW 0 24 64 Left 2
WINDOW 3 24 0 Left 2
SYMATTR InstName D4
SYMATTR Value RRE07VS4S
SYMBOL cap -192 864 R0
SYMATTR InstName C4
SYMATTR Value 150µ
SYMATTR SpiceLine Rser=2
SYMBOL cap 96 816 R0
WINDOW 3 24 53 Left 2
SYMATTR Value 150µ
SYMATTR InstName C6
SYMATTR SpiceLine Rser=2
SYMBOL ind 304 800 R90
WINDOW 0 5 56 VBottom 2
WINDOW 3 32 56 VTop 2
SYMATTR InstName L1
SYMATTR Value 0.7
SYMATTR SpiceLine Rser=7
SYMBOL cap 320 864 R0
SYMATTR InstName C8
SYMATTR Value 150µ
SYMATTR SpiceLine Rser=2
SYMBOL ind 80 800 R90
WINDOW 0 5 56 VBottom 2
WINDOW 3 32 56 VTop 2
SYMATTR InstName L4
SYMATTR Value 0.7
SYMATTR SpiceLine Rser=7
SYMBOL res -48 800 R90
WINDOW 0 0 56 VBottom 2
WINDOW 3 34 60 VTop 2
SYMATTR InstName R19
SYMATTR Value 30
SYMBOL zener 768 1264 R180
WINDOW 0 24 64 Left 2
WINDOW 3 24 0 Left 2
SYMATTR InstName D5
SYMATTR Value 1N5375B
SYMATTR Description Diode
SYMATTR Type diode
SYMBOL res 496 832 R0
SYMATTR InstName R20
SYMATTR Value 330k
SYMBOL npn 816 1024 M0
SYMATTR InstName Q1
SYMATTR Value 2N3904
SYMBOL res 880 1072 R0
SYMATTR InstName R21
SYMATTR Value 33k
SYMBOL res 976 1088 R0
SYMATTR InstName R22
SYMATTR Value 12k
SYMBOL res 880 880 R0
SYMATTR InstName R23
SYMATTR Value 2.1k
SYMBOL res 880 976 R0
SYMATTR InstName R24
SYMATTR Value 2.9k
SYMBOL res 880 800 R0
SYMATTR InstName R25
SYMATTR Value 75k
SYMBOL nmos 672 864 R270
SYMATTR InstName M1
SYMATTR Value IRF740
SYMBOL diode -336 912 R180
WINDOW 0 24 64 Left 2
WINDOW 3 24 0 Left 2
SYMATTR InstName D2
SYMATTR Value RRE07VS4S
SYMBOL diode -496 960 R270
WINDOW 0 32 32 VTop 2
WINDOW 3 0 32 VBottom 2
SYMATTR InstName D3
SYMATTR Value RRE07VS4S
TEXT 608 -88 Left 2 !K L2 L3 L5 1
TEXT -1008 136 Left 2 !.tran 0 10 9.8 1
TEXT -968 80 Left 2 !.INC C:\\Program Files\\LTC\\LTspiceIV\\lib\\tubes.inc
TEXT -968 40 Left 2 !.INC C:\\Program Files\\LTC\\LTspiceIV\\lib\\pl504.inc
TEXT -984 -24 Left 2 ;.step param napon 0.3 1.2 0
TEXT -808 192 Left 2 !.fourier {X} V(a)
TEXT -808 224 Left 2 !.fourier {X} V(b)
TEXT -808 256 Left 2 !.fourier {X} V(ulaz)
TEXT 1176 -24 Left 2 !.fourier {X} V(n003)
TEXT -968 -80 Left 2 !.param X 1k
TEXT 80 24 Left 2 !.param Xa=R*(val/100)
TEXT 80 56 Left 2 !.param Xb=R*(1.1-(val/100))
TEXT 80 88 Left 2 !.param R=200k
TEXT 80 -208 Left 2 ;.step param val 1 100 60
TEXT 80 -176 Left 2 !.param val 0
TEXT -984 8 Left 2 !.param napon 0
TEXT -808 160 Left 2 !.fourier {X} V(prvi_stepen)
TEXT -1376 80 Left 2 ;.step param A 100k 400k 40k
TEXT -1368 112 Left 2 ;.param A 350k
TEXT 656 392 Left 2 ;.step param OHM 10 200 20
TEXT 656 424 Left 2 !.param OHM 70
TEXT 784 688 Left 2 !.INC C:\\Program Files\\LTC\\LTspiceIV\\lib\\IRF740.inc
TEXT -792 640 Left 2 !.options gmin=1e-10
TEXT -792 672 Left 2 !.options abstol=1e-10
TEXT -792 704 Left 2 !.options reltol=0.003
TEXT -792 736 Left 2 !.options cshunt=1e-15
TEXT 680 -168 Left 2 ;snaga V(a)*((-I(L5)+I(L2))/2)
TEXT 1016 392 Left 2 ;V(a)*((-I(L5)+I(L2))/2) - snaga jedne cevi
