Version 4
SHEET 1 1380 680
WIRE 768 -160 640 -160
WIRE 1040 -160 768 -160
WIRE 768 -112 768 -160
WIRE 768 0 768 -32
WIRE 640 32 640 -160
WIRE 1040 32 1040 -160
WIRE 640 128 640 112
WIRE 704 128 640 128
WIRE 784 128 768 128
WIRE 832 128 784 128
WIRE 832 176 832 128
WIRE 1040 192 1040 112
WIRE 1152 192 1040 192
WIRE 1248 192 1216 192
WIRE 1280 192 1280 176
WIRE 1280 192 1248 192
WIRE 640 208 640 128
WIRE 1040 208 1040 192
WIRE 208 256 128 256
WIRE 384 256 208 256
WIRE 432 256 384 256
WIRE 592 256 512 256
WIRE 992 256 832 256
WIRE 128 272 128 256
WIRE 832 288 832 256
WIRE 1200 288 1200 192
WIRE 128 400 128 352
WIRE 384 400 384 256
WIRE 608 400 608 304
WIRE 720 400 608 400
WIRE 768 400 720 400
WIRE 1008 400 1008 304
WIRE 1008 400 768 400
WIRE 720 480 720 464
WIRE 720 480 384 480
WIRE 768 480 720 480
WIRE 832 480 832 368
WIRE 832 480 768 480
WIRE 1200 480 1200 368
WIRE 1200 480 832 480
WIRE 1280 480 1200 480
WIRE 768 528 768 480
FLAG 768 528 0
FLAG 768 0 0
FLAG 128 400 0
FLAG 208 256 ulaz
FLAG 1248 192 izlaz1
FLAG 784 128 izlaz2
SYMBOL Misc\\triode 640 256 R0
SYMATTR InstName U1
SYMATTR Value 12au7
SYMBOL Misc\\triode 1040 256 R0
SYMATTR InstName U2
SYMATTR Value 12au7
SYMBOL voltage 768 -128 R0
WINDOW 3 24 44 Left 2
WINDOW 123 24 72 Left 2
WINDOW 39 24 100 Left 2
SYMATTR Value 260
SYMATTR Value2 AC 1
SYMATTR SpiceLine Rser=10
SYMATTR InstName V1
SYMBOL res 624 16 R0
SYMATTR InstName R1
SYMATTR Value 100k
SYMBOL res 1024 16 R0
SYMATTR InstName R2
SYMATTR Value 100k
SYMBOL res 752 384 R0
SYMATTR InstName R3
SYMATTR Value 3.3k
SYMBOL res 368 384 R0
SYMATTR InstName R4
SYMATTR Value 470k
SYMBOL res 528 240 R90
WINDOW 0 0 56 VBottom 2
WINDOW 3 32 56 VTop 2
SYMATTR InstName R6
SYMATTR Value 2.7k
SYMBOL res 848 272 R180
WINDOW 0 36 76 Left 2
WINDOW 3 36 40 Left 2
SYMATTR InstName R7
SYMATTR Value 228k
SYMBOL res 848 384 R180
WINDOW 0 36 76 Left 2
WINDOW 3 36 40 Left 2
SYMATTR InstName R8
SYMATTR Value 22k
SYMBOL voltage 128 256 R0
WINDOW 3 24 44 Left 2
WINDOW 123 24 72 Left 2
WINDOW 39 24 100 Left 2
SYMATTR Value SINE(0 0.7 1k)
SYMATTR Value2 AC 1
SYMATTR SpiceLine Rser=1
SYMATTR InstName V2
SYMBOL cap 768 112 R90
WINDOW 0 0 32 VBottom 2
WINDOW 3 32 32 VTop 2
SYMATTR InstName C1
SYMATTR Value 1µ
SYMBOL cap 1216 176 R90
WINDOW 0 0 32 VBottom 2
WINDOW 3 32 32 VTop 2
SYMATTR InstName C2
SYMATTR Value 1µ
SYMBOL res 1216 384 R180
WINDOW 0 36 76 Left 2
WINDOW 3 36 40 Left 2
SYMATTR InstName R5
SYMATTR Value 250k
SYMBOL cap 704 400 R0
SYMATTR InstName C3
SYMATTR Value 50µ
TEXT -128 72 Left 2 !.INC C:\\Program Files\\LTC\\LTspiceIV\\lib\\tubes.inc
TEXT -128 104 Left 2 !.tran 0 10 9.9 100
TEXT 136 184 Left 2 !.fourier 1K V(ulaz)
TEXT 136 152 Left 2 !.fourier 1K V(izlaz1)
TEXT 136 120 Left 2 !.fourier 1K V(izlaz2)
