Version 4
SHEET 1 1016 680
WIRE 576 -64 560 -64
WIRE 672 -64 656 -64
WIRE 672 -48 672 -64
WIRE 688 -48 688 -64
WIRE 688 -48 672 -48
WIRE 688 0 688 -48
WIRE 560 32 560 -64
WIRE 560 96 560 32
WIRE 640 96 560 96
WIRE 688 96 688 80
WIRE 640 144 640 96
WIRE 848 144 640 144
WIRE 960 144 848 144
WIRE 560 160 560 96
WIRE 848 176 848 144
WIRE 960 176 960 144
WIRE 656 208 608 208
WIRE 288 224 112 224
WIRE 352 224 288 224
WIRE 512 224 432 224
WIRE 288 240 288 224
WIRE 528 320 528 272
WIRE 592 320 528 320
WIRE 656 320 656 288
WIRE 528 336 528 320
WIRE 848 336 848 256
WIRE 960 336 960 256
WIRE 592 352 592 320
WIRE 112 384 112 304
WIRE 288 384 288 320
WIRE 528 448 528 416
WIRE 592 448 592 416
FLAG 688 96 0
FLAG 656 320 0
FLAG 528 480 0
FLAG 288 384 0
FLAG 112 384 0
FLAG 848 336 0
FLAG 960 336 0
FLAG 560 32 izlaz
FLAG 592 448 0
FLAG 528 448 0
SYMBOL Misc\\tetrode 560 208 R0
SYMATTR InstName U1
SYMATTR Value EL34
SYMBOL voltage 688 -16 R0
WINDOW 3 24 44 Left 2
WINDOW 123 24 72 Left 2
WINDOW 39 24 100 Left 2
SYMATTR Value 330
SYMATTR Value2 AC 1
SYMATTR SpiceLine Rser=1
SYMATTR InstName V1
SYMBOL voltage 656 192 R0
WINDOW 3 24 44 Left 2
WINDOW 123 24 72 Left 2
WINDOW 39 24 100 Left 2
SYMATTR Value 189
SYMATTR Value2 AC 1
SYMATTR SpiceLine Rser=1
SYMATTR InstName V2
SYMBOL res 272 224 R0
SYMATTR InstName R2
SYMATTR Value 100k
SYMBOL res 448 208 R90
WINDOW 0 0 56 VBottom 2
WINDOW 3 32 56 VTop 2
SYMATTR InstName R3
SYMATTR Value 2.7
SYMBOL voltage 112 208 R0
WINDOW 3 24 44 Left 2
WINDOW 123 24 72 Left 2
WINDOW 39 24 100 Left 2
SYMATTR Value SINE(0 3 1k)
SYMATTR Value2 AC 1
SYMATTR SpiceLine Rser=1
SYMATTR InstName V3
SYMBOL current 848 256 R180
WINDOW 0 24 80 Left 2
WINDOW 3 24 0 Left 2
WINDOW 123 -73 -24 Left 2
WINDOW 39 0 0 Left 2
SYMATTR InstName I1
SYMATTR Value ""
SYMATTR Value2 AC 1
SYMBOL res 944 160 R0
SYMATTR InstName R4
SYMATTR Value 1g
SYMBOL res 672 -80 R90
WINDOW 0 -28 56 VTop 2
WINDOW 3 28 56 VBottom 2
SYMATTR InstName R5
SYMATTR Value {X}
SYMBOL res 512 320 R0
SYMATTR InstName R1
SYMATTR Value 380
SYMBOL cap 576 352 R0
SYMATTR InstName C1
SYMATTR Value 2200µ
TEXT -72 56 Left 2 !.INC C:\\Program Files\\LTC\\LTspiceIV\\lib\\tubes.inc
TEXT 168 112 Left 2 !.step param X 3k 6k 250
TEXT -72 504 Left 2 !.tran 0 10.1 10 100
