Version 4
SHEET 1 880 680
WIRE 240 -144 128 -144
WIRE 384 -144 240 -144
WIRE 128 -80 128 -144
WIRE 384 -80 384 -144
WIRE 240 -32 240 -64
WIRE 544 -32 480 -32
WIRE 656 -32 608 -32
WIRE 688 -32 656 -32
WIRE 384 48 384 0
WIRE 480 48 480 -32
WIRE 480 48 384 48
WIRE 128 80 128 0
WIRE 480 80 128 80
WIRE 688 80 688 48
WIRE 656 112 608 112
WIRE 688 112 656 112
WIRE 128 128 128 80
WIRE 384 128 384 48
WIRE -192 176 -336 176
WIRE -32 176 -192 176
WIRE -16 176 -32 176
WIRE 80 176 64 176
WIRE 480 176 480 80
WIRE 480 176 432 176
WIRE 688 208 688 112
WIRE -336 224 -336 176
WIRE -32 256 -32 176
WIRE 96 256 96 224
WIRE 192 256 96 256
WIRE 416 256 416 224
WIRE 544 256 544 112
WIRE 544 256 416 256
WIRE 96 288 96 256
WIRE 416 288 416 256
WIRE 192 304 192 256
WIRE 688 320 688 288
WIRE -336 368 -336 304
WIRE 96 400 96 368
WIRE 192 400 192 368
WIRE 192 400 96 400
WIRE -32 448 -32 336
WIRE 416 448 416 368
WIRE 96 464 96 400
FLAG -336 368 0
FLAG -32 448 0
FLAG 96 464 0
FLAG 240 -32 0
FLAG 688 320 0
FLAG 688 80 0
FLAG -192 176 ulaz
FLAG 656 -32 izlaz2
FLAG 656 112 izlaz1
FLAG 416 448 0
SYMBOL Misc\\triode 128 176 R0
SYMATTR InstName U1
SYMATTR Value 12au7
SYMBOL Misc\\triode 384 176 M0
SYMATTR InstName U2
SYMATTR Value 12au7
SYMBOL voltage -336 208 R0
WINDOW 3 23 45 Left 2
WINDOW 123 24 72 Left 2
WINDOW 39 24 100 Left 2
SYMATTR Value SINE(0 1 1k)
SYMATTR Value2 AC 1
SYMATTR SpiceLine Rser=1
SYMATTR InstName V1
SYMBOL res -48 240 R0
SYMATTR InstName R1
SYMATTR Value 470k
SYMBOL res 112 -96 R0
SYMATTR InstName R4
SYMATTR Value 220k
SYMBOL res 368 -96 R0
SYMATTR InstName R5
SYMATTR Value 150k
SYMBOL res 672 -48 R0
SYMATTR InstName R6
SYMATTR Value 100k
SYMBOL res 672 192 R0
SYMATTR InstName R7
SYMATTR Value 100k
SYMBOL res 80 160 R90
WINDOW 0 0 56 VBottom 2
WINDOW 3 32 56 VTop 2
SYMATTR InstName R8
SYMATTR Value 2k
SYMBOL voltage 240 -160 R0
WINDOW 3 23 45 Left 2
WINDOW 123 24 72 Left 2
WINDOW 39 24 100 Left 2
SYMATTR Value 250
SYMATTR Value2 AC 1
SYMATTR SpiceLine Rser=1
SYMATTR InstName V2
SYMBOL cap 608 -48 R90
WINDOW 0 0 32 VBottom 2
WINDOW 3 32 32 VTop 2
SYMATTR InstName C1
SYMATTR Value 1µ
SYMBOL cap 608 96 R90
WINDOW 0 0 32 VBottom 2
WINDOW 3 32 32 VTop 2
SYMATTR InstName C2
SYMATTR Value 1µ
SYMBOL res 80 272 R0
SYMATTR InstName R2
SYMATTR Value 7.8k
SYMBOL cap 176 304 R0
SYMATTR InstName C3
SYMATTR Value 50µ
SYMBOL res 400 272 R0
SYMATTR InstName R3
SYMATTR Value 150k
TEXT -432 -16 Left 2 !.INC C:\\Program Files\\LTC\\LTspiceIV\\lib\\pl504.inc
TEXT -432 8 Left 2 !.INC C:\\Program Files\\LTC\\LTspiceIV\\lib\\tubes.inc
TEXT -264 56 Left 2 !.fourier 1K V(ulaz)
TEXT -434 488 Left 2 !.tran 0 10 9.9 100
TEXT -264 88 Left 2 !.fourier 1K V(izlaz1)
TEXT -264 112 Left 2 !.fourier 1K V(izlaz2)
