Version 4
SHEET 1 1636 692
WIRE 880 16 720 16
WIRE 880 128 880 96
WIRE 720 144 720 16
WIRE 720 320 720 224
WIRE 768 320 720 320
WIRE 944 320 768 320
WIRE 720 384 720 320
WIRE 528 432 336 432
WIRE 560 432 528 432
WIRE 576 432 560 432
WIRE 672 432 656 432
WIRE 336 448 336 432
WIRE 560 480 560 432
WIRE 1136 496 1008 496
WIRE 688 512 688 480
WIRE 1008 512 1008 496
WIRE 1136 512 1136 496
WIRE 1008 608 1008 592
WIRE 1136 608 1136 576
WIRE 336 640 336 528
WIRE 560 640 560 560
WIRE 1072 656 1008 608
WIRE 1072 656 1136 608
WIRE 688 672 688 592
FLAG 560 640 0
FLAG 336 640 0
FLAG 528 432 ulaz
FLAG 688 672 0
FLAG 768 320 prvi_stepen
FLAG 880 128 0
FLAG 944 400 0
FLAG 1072 656 0
SYMBOL voltage 336 432 R0
WINDOW 3 24 44 Left 2
WINDOW 123 24 72 Left 2
WINDOW 39 24 100 Left 2
SYMATTR Value SINE(0 {napon} {X})
SYMATTR Value2 AC 1
SYMATTR SpiceLine Rser=400
SYMATTR InstName V1
SYMBOL Misc\\triode 720 432 R0
SYMATTR InstName U1
SYMATTR Value 12au7
SYMBOL res 704 128 R0
SYMATTR InstName R1
SYMATTR Value 18k
SYMBOL res 992 496 R0
SYMATTR InstName R2
SYMATTR Value 810
SYMBOL res 672 416 R90
WINDOW 0 0 56 VBottom 2
WINDOW 3 32 56 VTop 2
SYMATTR InstName R3
SYMATTR Value 2.2k
SYMBOL res 576 576 R180
WINDOW 0 36 76 Left 2
WINDOW 3 36 40 Left 2
SYMATTR InstName R4
SYMATTR Value 470k
SYMBOL cap 1120 512 R0
SYMATTR InstName C1
SYMATTR Value 300µ
SYMBOL voltage 880 0 R0
WINDOW 3 24 44 Left 2
WINDOW 123 24 72 Left 2
WINDOW 39 24 100 Left 2
SYMATTR Value 250
SYMATTR Value2 AC 1
SYMATTR SpiceLine Rser=0.0001
SYMATTR InstName V2
SYMBOL res 928 304 R0
SYMATTR InstName R5
SYMATTR Value 6meg
SYMBOL voltage 688 496 R0
WINDOW 3 24 44 Left 2
WINDOW 123 24 72 Left 2
WINDOW 39 24 100 Left 2
SYMATTR Value 8
SYMATTR Value2 AC 1
SYMATTR SpiceLine Rser=1
SYMATTR InstName V3
TEXT -96 112 Left 2 !.INC C:\\Program Files\\LTC\\LTspiceIV\\lib\\tubes.inc
TEXT 296 336 Left 2 ;.fourier {X} V(a)
TEXT 296 368 Left 2 ;.fourier {X} V(b)
TEXT 296 400 Left 2 !.fourier {X} V(ulaz)
TEXT 296 304 Left 2 !.fourier {X} V(prvi_stepen)
TEXT -96 144 Left 2 !.param napon 1.2
TEXT -96 208 Left 2 !.tran 0 3 2.99 10
TEXT -96 240 Left 2 !.param X 1k
TEXT -96 176 Left 2 ;.step param napon 0.3 1.2 0
