Version 4
SHEET 1 880 680
WIRE 336 16 112 16
WIRE 112 32 112 16
WIRE 112 32 32 32
WIRE 176 32 112 32
WIRE 336 32 336 16
WIRE 32 48 32 32
WIRE 176 160 176 112
WIRE -80 208 -128 208
WIRE 32 208 32 128
WIRE 32 208 -16 208
WIRE 112 208 32 208
WIRE -128 240 -128 208
WIRE 32 256 32 208
WIRE 176 288 176 256
WIRE 112 336 32 336
WIRE -128 368 -128 320
WIRE 112 368 112 336
WIRE 176 368 112 336
FLAG 112 368 0
FLAG 336 112 0
FLAG -128 368 0
SYMBOL npn 112 160 R0
SYMATTR InstName Q1
SYMATTR Value 2N4124
SYMBOL res 160 16 R0
SYMATTR InstName R1
SYMATTR Value 2.8k
SYMBOL res 160 272 R0
SYMATTR InstName R2
SYMATTR Value 0.7k
SYMBOL res 16 240 R0
SYMATTR InstName R3
SYMATTR Value 47k
SYMBOL res 16 32 R0
SYMATTR InstName R4
SYMATTR Value 150k
SYMBOL voltage -128 224 R0
WINDOW 123 24 124 Left 2
WINDOW 39 0 0 Left 2
SYMATTR InstName V1
SYMATTR Value SINE(0 0 1k)
SYMATTR Value2 AC 1
SYMBOL voltage 336 16 R0
WINDOW 123 24 124 Left 2
WINDOW 39 0 0 Left 2
SYMATTR InstName V2
SYMATTR Value 12
SYMATTR Value2 AC 1
SYMBOL cap -16 192 R90
WINDOW 0 0 32 VBottom 2
WINDOW 3 32 32 VTop 2
SYMATTR InstName C1
SYMATTR Value 1µ
TEXT -306 104 Left 2 !.tran 0 5s 4.9s 100
