Version 4
SHEET 1 1868 832
WIRE -240 32 -544 32
WIRE 912 32 -240 32
WIRE 1360 48 1216 48
WIRE -240 64 -240 32
WIRE -544 80 -544 32
WIRE 912 80 912 32
WIRE 1216 80 1216 48
WIRE 912 176 912 160
WIRE 1072 176 912 176
WIRE -240 208 -240 144
WIRE 16 208 -240 208
WIRE 1216 208 1216 160
WIRE 1360 208 1360 128
WIRE 1360 208 1216 208
WIRE 912 224 912 176
WIRE 1216 240 1216 208
WIRE -240 272 -240 208
WIRE 16 272 16 208
WIRE 80 272 128 192
WIRE 80 272 64 272
WIRE 112 272 80 272
WIRE 224 272 112 272
WIRE 496 272 224 272
WIRE 752 272 560 272
WIRE 864 272 752 272
WIRE 496 288 496 272
WIRE -528 320 -640 320
WIRE -368 320 -448 320
WIRE -352 320 -368 320
WIRE -288 320 -352 320
WIRE 224 320 224 272
WIRE 752 352 752 272
WIRE 880 352 880 320
WIRE 1040 352 880 352
WIRE 1248 352 1104 352
WIRE 1280 352 1248 352
WIRE -368 368 -368 320
WIRE -368 368 -416 368
WIRE -352 368 -352 320
WIRE 880 368 880 352
WIRE 496 400 496 368
WIRE 560 400 560 272
WIRE 560 400 496 400
WIRE -640 416 -640 320
WIRE -272 416 -272 368
WIRE -160 416 -272 416
WIRE 496 416 496 400
WIRE -272 432 -272 416
WIRE -416 448 -416 368
WIRE 224 448 224 400
WIRE 752 464 752 432
WIRE 880 464 880 448
WIRE 1280 464 1280 432
WIRE -160 512 -160 480
WIRE -640 528 -640 496
WIRE 496 528 496 496
WIRE -416 576 -416 528
WIRE -352 592 -352 448
WIRE 112 592 112 272
WIRE 112 592 -352 592
FLAG -640 528 0
FLAG -544 160 0
FLAG -272 512 0
FLAG -160 512 0
FLAG 128 192 izlaz1
FLAG 496 528 0
FLAG 752 464 0
FLAG 880 464 0
FLAG 1248 352 izlaz2
FLAG 224 448 0
FLAG 1216 240 0
FLAG 1280 464 0
FLAG -416 576 0
SYMBOL voltage -640 400 R0
WINDOW 3 24 44 Left 2
WINDOW 123 20 -17 Left 2
WINDOW 39 24 72 Left 2
SYMATTR Value SINE(0 2 1k 0 0 0 0)
SYMATTR Value2 AC 1
SYMATTR SpiceLine Rser=1000
SYMATTR InstName V1
SYMBOL Misc\\triode -240 320 R0
SYMATTR InstName U2
SYMATTR Value 12AX7A
SYMBOL cap 80 256 R90
WINDOW 0 0 32 VBottom 2
WINDOW 3 32 32 VTop 2
SYMATTR InstName C2
SYMATTR Value 10µ
SYMBOL res -368 352 R0
SYMATTR InstName R1
SYMATTR Value 70k
SYMATTR SpiceLine tol=1 pwr=0.25
SYMBOL res -288 416 R0
SYMATTR InstName R2
SYMATTR Value 1.2k
SYMATTR SpiceLine tol=1 pwr=0.25
SYMBOL res -256 48 R0
SYMATTR InstName R3
SYMATTR Value 100k
SYMATTR SpiceLine tol=1 pwr=0.25
SYMBOL res 208 304 R0
SYMATTR InstName R4
SYMATTR Value 100k
SYMATTR SpiceLine tol=1 pwr=0.25
SYMBOL voltage -544 64 R0
WINDOW 123 0 0 Left 2
WINDOW 39 0 0 Left 2
SYMATTR InstName V2
SYMATTR Value 250
SYMBOL cap -176 416 R0
SYMATTR InstName C3
SYMATTR Value 4700µ
SYMBOL res 512 512 R180
WINDOW 0 36 76 Left 2
WINDOW 3 36 40 Left 2
SYMATTR InstName R6
SYMATTR Value {Xa}
SYMBOL res 736 336 R0
SYMATTR InstName R7
SYMATTR Value 200k
SYMBOL Misc\\triode 912 272 R0
SYMATTR InstName U1
SYMATTR Value 12AT7
SYMBOL res 864 352 R0
SYMATTR InstName R8
SYMATTR Value 500
SYMATTR SpiceLine tol=1 pwr=0.6
SYMBOL res 896 64 R0
WINDOW 3 36 68 Left 2
SYMATTR Value 1
SYMATTR InstName R9
SYMBOL res 480 272 R0
WINDOW 3 27 77 Left 2
SYMATTR Value {Xb}
SYMATTR InstName R11
SYMBOL current 1216 160 R180
WINDOW 0 24 80 Left 2
WINDOW 3 24 0 Left 2
WINDOW 123 -73 -24 Left 2
WINDOW 39 0 0 Left 2
SYMATTR InstName I1
SYMATTR Value ""
SYMATTR Value2 AC 1
SYMBOL cap 1104 336 R90
WINDOW 0 0 32 VBottom 2
WINDOW 3 32 32 VTop 2
SYMATTR InstName C4
SYMATTR Value 22µ
SYMBOL res 1264 336 R0
SYMATTR InstName R10
SYMATTR Value 47k
SYMBOL res 1344 32 R0
SYMATTR InstName R5
SYMATTR Value 47k
SYMBOL res -432 432 R0
SYMATTR InstName R14
SYMATTR Value 80k
SYMBOL res -432 304 R90
WINDOW 0 0 56 VBottom 2
WINDOW 3 32 56 VTop 2
SYMATTR InstName R12
SYMATTR Value 170k
TEXT 72 88 Left 2 !.INC C:\\Program Files\\LTC\\LTspiceIV\\lib\\tubes.inc
TEXT 304 176 Left 2 !.step param val 1 100 10
TEXT 568 144 Left 2 !.param Xa=R*(val/100)
TEXT 568 176 Left 2 !.param Xb=R*(1.1-(val/100))
TEXT 320 208 Left 2 !.param R=50k
TEXT -944 368 Left 2 ;.step param Y 10 10k 1000
TEXT 312 144 Left 2 ;.step param val 51 52 1
TEXT -840 264 Left 2 !.tran 0 5s 4994ms
TEXT 480 -144 Left 2 !.fourier 1k V(izlaz2)
TEXT 480 -104 Left 2 !.fourier 1k V(n006)
