Version 4
SHEET 1 1832 832
WIRE -240 32 -544 32
WIRE 912 32 -240 32
WIRE -240 64 -240 32
WIRE 1424 64 1360 64
WIRE -544 80 -544 32
WIRE 912 80 912 32
WIRE 1360 80 1360 64
WIRE 1424 96 1424 64
WIRE 912 176 912 160
WIRE 1088 176 912 176
WIRE -240 208 -240 144
WIRE 16 208 -240 208
WIRE 912 224 912 176
WIRE 1424 256 1424 176
WIRE -240 272 -240 208
WIRE 16 272 16 208
WIRE 80 272 128 192
WIRE 80 272 64 272
WIRE 224 272 80 272
WIRE 336 272 224 272
WIRE 496 272 416 272
WIRE 704 272 560 272
WIRE 800 272 704 272
WIRE 864 272 800 272
WIRE 1088 272 1088 176
WIRE 1120 272 1088 272
WIRE 1184 272 1120 272
WIRE 1312 272 1248 272
WIRE 496 288 496 272
WIRE -592 320 -640 320
WIRE -464 320 -528 320
WIRE -368 320 -384 320
WIRE -288 320 -368 320
WIRE 224 320 224 272
WIRE 704 352 704 272
WIRE 880 352 880 320
WIRE 976 352 880 352
WIRE -368 368 -368 320
WIRE 880 368 880 352
WIRE 976 368 976 352
WIRE 1312 384 1312 352
WIRE 1392 384 1312 384
WIRE 1472 384 1392 384
WIRE 496 400 496 368
WIRE 560 400 560 272
WIRE 560 400 496 400
WIRE 1120 400 1120 336
WIRE 1184 400 1120 400
WIRE 1312 400 1312 384
WIRE 1472 400 1472 384
WIRE -640 416 -640 320
WIRE -272 416 -272 368
WIRE -160 416 -272 416
WIRE 496 416 496 400
WIRE -272 432 -272 416
WIRE 224 448 224 400
WIRE 704 464 704 432
WIRE 880 464 880 448
WIRE 976 464 976 432
WIRE 1184 480 1184 400
WIRE -160 512 -160 480
WIRE 1312 512 1312 480
WIRE 1472 512 1472 480
WIRE -640 528 -640 496
WIRE 496 528 496 496
WIRE 800 528 800 272
WIRE 1104 528 1104 480
WIRE 1104 528 800 528
FLAG -640 528 0
FLAG -544 160 0
FLAG -272 512 0
FLAG -368 448 0
FLAG -160 512 0
FLAG 128 192 izlaz1
FLAG 496 528 0
FLAG 704 464 0
FLAG 880 464 0
FLAG 976 464 0
FLAG 1312 512 0
FLAG 1392 384 izlaz2
FLAG 224 448 0
FLAG 1424 256 0
FLAG 1360 80 0
FLAG 1472 512 0
SYMBOL voltage -640 400 R0
WINDOW 3 24 44 Left 2
WINDOW 123 20 -17 Left 2
WINDOW 39 24 72 Left 2
SYMATTR Value SINE(0 5 1k)
SYMATTR Value2 AC 1
SYMATTR SpiceLine Rser=1k
SYMATTR InstName V1
SYMBOL Misc\\triode -240 320 R0
SYMATTR InstName U2
SYMATTR Value 12AX7
SYMBOL cap -528 304 R90
WINDOW 0 0 32 VBottom 2
WINDOW 3 32 32 VTop 2
SYMATTR InstName C1
SYMATTR Value 4.4µ
SYMBOL cap 80 256 R90
WINDOW 0 0 32 VBottom 2
WINDOW 3 32 32 VTop 2
SYMATTR InstName C2
SYMATTR Value 2µ
SYMBOL res -384 352 R0
SYMATTR InstName R1
SYMATTR Value 10k
SYMATTR SpiceLine tol=1 pwr=0.25
SYMBOL res -288 416 R0
SYMATTR InstName R2
SYMATTR Value 4.7k
SYMATTR SpiceLine tol=1 pwr=0.25
SYMBOL res -256 48 R0
SYMATTR InstName R3
SYMATTR Value 240k
SYMATTR SpiceLine tol=1 pwr=0.25
SYMBOL res 208 304 R0
SYMATTR InstName R4
SYMATTR Value 100k
SYMATTR SpiceLine tol=1 pwr=0.25
SYMBOL voltage -544 64 R0
WINDOW 123 0 0 Left 2
WINDOW 39 0 0 Left 2
SYMATTR InstName V2
SYMATTR Value 200
SYMBOL cap -176 416 R0
SYMATTR InstName C3
SYMATTR Value 4700µ
SYMBOL res 512 512 R180
WINDOW 0 36 76 Left 2
WINDOW 3 36 40 Left 2
SYMATTR InstName R6
SYMATTR Value {Xa}
SYMBOL res 688 336 R0
SYMATTR InstName R7
SYMATTR Value 100k
SYMBOL Misc\\triode 912 272 R0
SYMATTR InstName U1
SYMATTR Value 12AX7A
SYMBOL res 864 352 R0
SYMATTR InstName R8
SYMATTR Value 4.7k
SYMATTR SpiceLine tol=1 pwr=0.6
SYMBOL cap 1248 256 R90
WINDOW 0 0 32 VBottom 2
WINDOW 3 32 26 VTop 2
SYMATTR InstName C5
SYMATTR Value 2.2µ
SYMBOL res 896 64 R0
SYMATTR InstName R9
SYMATTR Value 220k
SYMBOL cap 1136 336 R180
WINDOW 0 24 56 Left 2
WINDOW 3 24 8 Left 2
SYMATTR InstName C6
SYMATTR Value 1µ
SYMBOL res 1296 256 R0
SYMATTR InstName R10
SYMATTR Value 47k
SYMBOL res 480 272 R0
WINDOW 3 27 77 Left 2
SYMATTR Value {Xb}
SYMATTR InstName R11
SYMBOL res 432 256 R90
WINDOW 0 0 56 VBottom 2
WINDOW 3 32 56 VTop 2
SYMATTR InstName R5
SYMATTR Value 470k
SYMBOL res 1200 464 R90
WINDOW 0 0 56 VBottom 2
WINDOW 3 32 56 VTop 2
SYMATTR InstName R12
SYMATTR Value 470k
SYMBOL current 1424 176 R180
WINDOW 0 24 80 Left 2
WINDOW 3 24 0 Left 2
WINDOW 123 -73 -24 Left 2
WINDOW 39 0 0 Left 2
SYMATTR InstName I1
SYMATTR Value ""
SYMATTR Value2 AC 1
SYMBOL res -368 304 R90
WINDOW 0 0 56 VBottom 2
WINDOW 3 22 54 VTop 2
SYMATTR InstName R13
SYMATTR Value 100k
SYMBOL res 1296 384 R0
SYMATTR InstName R14
SYMATTR Value 7.5k
SYMBOL cap 960 368 R0
WINDOW 3 24 54 Left 2
SYMATTR Value 47µ
SYMATTR InstName C4
SYMBOL res 1456 384 R0
SYMATTR InstName R15
SYMATTR Value 47K
TEXT 72 88 Left 2 !.INC C:\\Program Files\\LTC\\LTspiceIV\\lib\\tubes.inc
TEXT -832 256 Left 2 !.tran 0 10s 9990ms
TEXT 304 176 Left 2 ;.step param val 1 100 10
TEXT 568 144 Left 2 !.param Xa=R*(val/100)
TEXT 568 176 Left 2 !.param Xb=R*(1.1-(val/100))
TEXT 320 208 Left 2 !.param R=50k
TEXT -944 368 Left 2 ;.step param Y 10 10k 1000
TEXT 312 144 Left 2 !.step param val 51 52 1
